dss/export/capas-pablo/compl-pvsy-linegeom-loadsh-csv-gen-cap-stwcontrol-curvasdecarga-normamps/LineGeometry.dss
New LineGeometry.geometria_s16 nconds=3 nphases=3 spacing=spacing_13_2 wires=(conductor_s16, conductor_s16, conductor_s16) reduce=null
New LineGeometry.geometria_s25 nconds=3 nphases=3 spacing=spacing_13_2 wires=(conductor_s25, conductor_s25, conductor_s25) reduce=null
New LineGeometry.geometria_s35 nconds=3 nphases=3 spacing=spacing_13_2 wires=(conductor_s35, conductor_s35, conductor_s35) reduce=null
New LineGeometry.geometria_s50 nconds=3 nphases=3 spacing=spacing_13_2 wires=(conductor_s50, conductor_s50, conductor_s50) reduce=null
New LineGeometry.geometria_s70 nconds=3 nphases=3 spacing=spacing_13_2 wires=(conductor_s70, conductor_s70, conductor_s70) reduce=null
New LineGeometry.geometria_s95 nconds=3 nphases=3 spacing=spacing_13_2 wires=(conductor_s95, conductor_s95, conductor_s95) reduce=null
New LineGeometry.geometria_s120 nconds=3 nphases=3 spacing=spacing_13_2 wires=(conductor_s120, conductor_s120, conductor_s120) reduce=null
New LineGeometry.geometria_s35_33 nconds=3 nphases=3 spacing=spacing_33 wires=(conductor_s35, conductor_s35, conductor_s35) reduce=null
New LineGeometry.geometria_s70_33 nconds=3 nphases=3 spacing=spacing_33 wires=(conductor_s70, conductor_s70, conductor_s70) reduce=null
